.model MbreakN-X NMOS W=10u L=1u KP=100u VTO=0.7 
*$
.model MbreakN-X1 NMOS W=22u L=1u KP=100u VTO=0.7 
*$
.model MbreakN-X2 NMOS W=13u L=1u KP=100u VTO=0.7 
*$
.model MbreakP-X PMOS W=10u L=1u KP=100u VTO=-0.7 
*$
.model MbreakP-X1 PMOS W=22u L=1u KP=100u VTO=-0.7 
*$
