.model Mbreakp PMOS VTO=-0.5 L=1u W=1u kp=10u lambda=0.01 Cbd=1p Cgdo=1f 
+ Cgso=1f 
*$
.model MbreakN-X NMOS VTO=0.5 L=1u kp=10u lambda=0.01 Cbd=1p Cgdo=1f Cgso=1f 
*$
.model MbreakN-X1 NMOS VTO=0.5 L=1u W=1u kp=10u lambda=0.01 Cbd=1p Cgdo=1f 
+ Cgso=1f 
*$
